
**** 02/03/16 08:28:10 ***** PSpice 16.6.0 (October 2012) ***** ID# 0 ********

 ** Profile: "SCHEMATIC2-transiente"  [ C:\Users\msouza\Desktop\rshunt-pspicefiles\schematic2\transiente.sim ] 


 ****     CIRCUIT DESCRIPTION


******************************************************************************




** Creating circuit file "transiente.cir" 
** WARNING: THIS AUTOMATICALLY GENERATED FILE MAY BE OVERWRITTEN BY SUBSEQUENT SIMULATIONS

*Libraries: 
* Profile Libraries :
* Local Libraries :
.LIB "C:/Users/lfranca/Desktop/arquivos/opa192/OPA192_PSPICE_AIO/OPA192.lib" 
.LIB "../../../rshunt-pspicefiles/rshunt.lib" 
.LIB "C:/Users/msouza/downloads/opa726/opa726_pspice_aio/opa726.lib" 
* From [PSPICE NETLIST] section of C:\Users\lfranca\cdssetup\OrCAD_PSpice/16.6.0/PSpice.ini file:
.lib "C:\Cadence\SPB_16.6\tools\pspice\library\nom.lib" 

*Analysis directives: 
.TRAN  0 0.02s 0 1u 
.AUTOCONVERGE ITL1=1000 ITL2=1000 ITL4=1000 RELTOL=0.05 ABSTOL=1.0E-6 VNTOL=.001 PIVTOL=1.0E-10 
.PROBE64 V(alias(*)) I(alias(*)) W(alias(*)) D(alias(*)) NOISE(alias(*)) 
.INC "..\SCHEMATIC2.net" 



**** INCLUDING SCHEMATIC2.net ****
* source RSHUNT
D_D3         0 N05118 Dbreak 
D_D2         N05092 N05122 Dbreak 
R_R5         N05350 0  10000k TC=0,0 
R_R2         N05122 N05232  1 TC=0,0 
R_R3         0 N05324  10k TC=0,0 
D_D4         0 N05092 Dbreak 
V_V1         N05092 N05118  AC 0
+SIN 0 51.8 120 0 0 0
D_D1         N05118 N05122 Dbreak 
R_R1         0 N05232  2m TC=0,0 
V_V2         N06023 0 5
R_R4         N05350 N05324  290k TC=0,0 
X_U1         N05232 N05324 N06023 N065313 N05350 OPA192 
V_V3         0 N065313 5

**** RESUMING transiente.cir ****
.END

**** 02/03/16 08:28:10 ***** PSpice 16.6.0 (October 2012) ***** ID# 0 ********

 ** Profile: "SCHEMATIC2-transiente"  [ C:\Users\msouza\Desktop\rshunt-pspicefiles\schematic2\transiente.sim ] 


 ****     Diode MODEL PARAMETERS


******************************************************************************




               Dbreak          X_U1.XIn11.DVNF X_U1.XVn11.DVN  X_U1.XU13.DNOM  
          IS   10.000000E-15  100.000000E-18  100.000000E-18    1.000000E-15 
          RS  100.000000E-09                                    1.000000E-03 
          TT                                                   10.000000E-12 
         CJO  100.000000E-15                                    1.000000E-18 
          KF                  316.227800E-15   10.000000E-12                 


               X_U1.XU8.DNOM   X_U1.XU12.DNOM  X_U1.XU2.DNOM   X_U1.XU11.DNOM  
          IS    1.000000E-15    1.000000E-15    1.000000E-15    1.000000E-15 
          RS    1.000000E-03    1.000000E-03    1.000000E-03    1.000000E-03 
          TT   10.000000E-12   10.000000E-12   10.000000E-12   10.000000E-12 
         CJO    1.000000E-18    1.000000E-18    1.000000E-18    1.000000E-18 


               X_U1.XU10.DNOM  
          IS    1.000000E-15 
          RS    1.000000E-03 
          TT   10.000000E-12 
         CJO    1.000000E-18 


**** 02/03/16 08:28:10 ***** PSpice 16.6.0 (October 2012) ***** ID# 0 ********

 ** Profile: "SCHEMATIC2-transiente"  [ C:\Users\msouza\Desktop\rshunt-pspicefiles\schematic2\transiente.sim ] 


 ****     Voltage Controlled Switch MODEL PARAMETERS


******************************************************************************




               X_U1.S_VSWITCH_1 
         RON    1            
        ROFF  100.000000E+06 
         VON     .1          
        VOFF    -.1          


               X_U1.S_VSWITCH_2 
         RON    1            
        ROFF  100.000000E+06 
         VON     .1          
        VOFF    -.1          


               X_U1.S_VSWITCH_3 
         RON    1            
        ROFF   10.000000E+06 
         VON     .1          
        VOFF    -.1          


               X_U1.S_VSWITCH_4 
         RON    1            
        ROFF   10.000000E+06 
         VON     .1          
        VOFF    -.1          


               X_U1.S_VSWITCH_5 
         RON     .01         
        ROFF  100.000000E+06 
         VON  150            
        VOFF  130            


               X_U1.S_VSWITCH_6 
         RON     .01         
        ROFF  100.000000E+06 
         VON  150            
        VOFF  130            


               X_U1.S_VSWITCH_7 
         RON    1.000000E-03 
        ROFF   10.000000E+06 
         VON    -.01         
        VOFF    0            


               X_U1.S_VSWITCH_8 
         RON    1.000000E-03 
        ROFF   10.000000E+06 
         VON     .01         
        VOFF    0            


               X_U1.S_VSWITCH_9 
         RON    1            
        ROFF   10.000000E+06 
         VON    1            
        VOFF   -1            


               X_U1.S_VSWITCH_10 
         RON    1            
        ROFF   10.000000E+06 
         VON    1            
        VOFF   -1            


               X_U1.S_VSWITCH_11 
         RON    1            
        ROFF    1.000000E+09 
         VON   10            
        VOFF  -10            


               X_U1.S_VSWITCH_12 
         RON    1            
        ROFF    1.000000E+09 
         VON   10            
        VOFF  -10            


               X_U1.S_VSWITCH_13 
         RON    1            
        ROFF    1.000000E+09 
         VON   10            
        VOFF  -10            


               X_U1.S_VSWITCH_14 
         RON    1            
        ROFF    1.000000E+09 
         VON   10            
        VOFF  -10            

Gmin Stepping started by AutoConverge Command
Convergence problem in transient bias point calculation


  Last node voltages tried were:

 NODE   VOLTAGE     NODE   VOLTAGE     NODE   VOLTAGE     NODE   VOLTAGE


(N05092)    -.2923 (N05118)    -.2923 (N05122)-599.1E-15 (N05232) 5.457E-15     

(N05324)-329.9E-12 (N05350)-7.655E-15 (N06023) 50.00E-06 (N065313)-50.00E-06    

(X_U1.11)    0.0000                   (X_U1.12)-7.655E-15                       

(X_U1.13)-76.55E-21                   (X_U1.14)-76.55E-21                       

(X_U1.15)    0.0000                   (X_U1.16) 61.14E-12                       

(X_U1.17)-60.18E-12                   (X_U1.18) 302.7E-18                       

(X_U1.19) 999.5E-09                   (X_U1.20)-999.5E-09                       

(X_U1.21) 11.38E-18                   (X_U1.22) 49.82E-06                       

(X_U1.23)-49.82E-06                   (X_U1.24)-1.297E-09                       

(X_U1.25) 1.297E-09                   (X_U1.26) 604.3E-21                       

(X_U1.27)-1.428E-27                   (X_U1.28) 966.3E-27                       

(X_U1.29)    0.0000                   (X_U1.30) 122.9E-24                       

(X_U1.31) 30.00E-27                   (X_U1.32) 343.3E-12                       

(X_U1.33)-76.55E-21                   (X_U1.34) 15.31E-18                       

(X_U1.35)-76.55E-21                   (X_U1.36) 2.275E-21                       

(X_U1.37)-7.655E-15                   (X_U1.38) 11.38E-18                       

(X_U1.39)-12.62E-30                   (X_U1.40)-500.0E-12                       

(X_U1.41) 500.0E-12                   (X_U1.42)    0.0000                       

(X_U1.43)-99.44E-12                   (X_U1.44) 99.44E-12                       

(X_U1.46)-20.00E-18                   (X_U1.47)-20.00E-18                       

(X_U1.48) 20.00E-15                   (X_U1.49)    0.0000                       

(X_U1.50)    0.0000                   (X_U1.51)-8.555E-27                       

(X_U1.52)-333.3E-12                   (X_U1.53) 333.3E-12                       

(X_U1.54) 333.3E-12                   (X_U1.55)-171.7E-24                       

(X_U1.56)    0.0000                   (X_U1.57)-171.7E-24                       

(X_U1.58)-333.3E-12                   (X_U1.59)-333.3E-12                       

(X_U1.60) 171.7E-21                   (X_U1.61) 171.7E-21                       

(X_U1.62) 3.433E-15                   (X_U1.63)-500.0E-12                       

(X_U1.64) 2.275E-21                   (X_U1.65) 1.000E-06                       

(X_U1.66)-9.850E-12                   (X_U1.67) 1.000E-06                       

(X_U1.68) 9.370E-12                   (X_U1.69)-30.15E-06                       

(X_U1.70) 30.63E-06                   (X_U1.71) 9.850E-06                       

(X_U1.72)-9.370E-06                   (X_U1.73)    -.0010                       

(X_U1.74)     .0010                   (X_U1.75)-650.0E-09                       

(X_U1.76) 650.0E-09                   (X_U1.77)-49.82E-09                       

(X_U1.78) 49.82E-09                   (X_U1.79)-30.15E-09                       

(X_U1.80) 30.63E-09                   (X_U1.81) 5.807E-24                       

(X_U1.82) 1.822E-15                   (X_U1.83) 11.36E-21                       

(X_U1.84) 11.36E-21                   (X_U1.85) 500.0E-12                       

(X_U1.86) 3.433E-15                   (X_U1.87) 33.03E-18                       

(X_U1.88) 20.00E-15                   (X_U1.89) 650.0E-06                       

(X_U1.90)-650.0E-06                   (X_U1.XU7.40) 15.31E-18                   

(X_U1.XIn11.3)    0.0000              (X_U1.XIn11.4)    0.0000                  

(X_U1.XIn11.5)    0.0000              (X_U1.XIn11.6)    0.0000                  

(X_U1.XIn11.7) 10.00E-06              (X_U1.XIn11.8) 10.00E-06                  

(X_U1.XR101.3) 45.45E-12              (X_U1.XR102.3)-454.5E-12                  

(X_U1.XR103.3) 30.03E-18              (X_U1.XR105.3) 275.2E-18                  

(X_U1.XR109.3)    0.0000              (X_U1.XVn11.3)    0.0000                  

(X_U1.XVn11.4)    0.0000              (X_U1.XVn11.5)    0.0000                  

(X_U1.XVn11.6)    0.0000              (X_U1.XVn11.7) 10.00E-06                  

(X_U1.XVn11.8) 10.00E-06              (X_U1.XR101.30)-12.62E-30                 

(X_U1.XR102.30)-500.0E-12             (X_U1.XR103.30) 33.03E-18                 

(X_U1.XR105.30)    0.0000             (X_U1.XR109.30)    0.0000                 

(X_U1.XR105_2.3)    0.0000            (X_U1.XR105_3.3) 2.727E-27                

(X_U1.XR109_2.3)    0.0000            (X_U1.XR109_3.3)    0.0000                

(X_U1.XR109_4.3)    0.0000            (X_U1.XR109_5.3) 956.7E-27                

(X_U1.XR109_6.3)-1.414E-27            (X_U1.XR105_2.30)    0.0000               

(X_U1.XR105_3.30)    0.0000           (X_U1.XR109_2.30)    0.0000               

(X_U1.XR109_3.30)    0.0000           (X_U1.XR109_4.30)    0.0000               

(X_U1.XR109_5.30)    0.0000           (X_U1.XR109_6.30)    0.0000           

Resuming Simulation with the following settings
ITL1 = 280
ITL2 = 171
ABSTOL = 1.26e-010

Gmin Stepping started by AutoConverge Command
Convergence problem in transient bias point calculation


  Last node voltages tried were:

 NODE   VOLTAGE     NODE   VOLTAGE     NODE   VOLTAGE     NODE   VOLTAGE


(N05092)     .2809 (N05118)     .2809 (N05122) 366.5E-12 (N05232) 738.1E-15     

(N05324)-329.9E-12 (N05350)-7.655E-15 (N06023) 50.00E-06 (N065313)-50.00E-06    

(X_U1.11)    0.0000                   (X_U1.12)-7.655E-15                       

(X_U1.13)-76.55E-21                   (X_U1.14)-76.55E-21                       

(X_U1.15)    0.0000                   (X_U1.16) 61.14E-12                       

(X_U1.17)-60.18E-12                   (X_U1.18) 302.7E-18                       

(X_U1.19) 999.5E-09                   (X_U1.20)-999.5E-09                       

(X_U1.21) 11.38E-18                   (X_U1.22) 49.82E-06                       

(X_U1.23)-49.82E-06                   (X_U1.24)-1.297E-09                       

(X_U1.25) 1.297E-09                   (X_U1.26) 604.3E-21                       

(X_U1.27)-1.428E-27                   (X_U1.28) 966.3E-27                       

(X_U1.29)    0.0000                   (X_U1.30) 122.9E-24                       

(X_U1.31) 30.00E-27                   (X_U1.32) 343.3E-12                       

(X_U1.33)-76.55E-21                   (X_U1.34) 15.31E-18                       

(X_U1.35)-76.55E-21                   (X_U1.36) 2.275E-21                       

(X_U1.37)-7.655E-15                   (X_U1.38) 11.38E-18                       

(X_U1.39)-12.62E-30                   (X_U1.40)-500.0E-12                       

(X_U1.41) 500.0E-12                   (X_U1.42)    0.0000                       

(X_U1.43)-99.44E-12                   (X_U1.44) 99.44E-12                       

(X_U1.46)-20.00E-18                   (X_U1.47)-20.00E-18                       

(X_U1.48) 20.00E-15                   (X_U1.49)    0.0000                       

(X_U1.50)    0.0000                   (X_U1.51)-8.555E-27                       

(X_U1.52)-333.3E-12                   (X_U1.53) 333.3E-12                       

(X_U1.54) 333.3E-12                   (X_U1.55)-171.7E-24                       

(X_U1.56)    0.0000                   (X_U1.57)-171.7E-24                       

(X_U1.58)-333.3E-12                   (X_U1.59)-333.3E-12                       

(X_U1.60) 171.7E-21                   (X_U1.61) 171.7E-21                       

(X_U1.62) 3.433E-15                   (X_U1.63)-500.0E-12                       

(X_U1.64) 2.275E-21                   (X_U1.65) 1.000E-06                       

(X_U1.66)-9.850E-12                   (X_U1.67) 1.000E-06                       

(X_U1.68) 9.370E-12                   (X_U1.69)-30.15E-06                       

(X_U1.70) 30.63E-06                   (X_U1.71) 9.850E-06                       

(X_U1.72)-9.370E-06                   (X_U1.73)    -.0010                       

(X_U1.74)     .0010                   (X_U1.75)-650.0E-09                       

(X_U1.76) 650.0E-09                   (X_U1.77)-49.82E-09                       

(X_U1.78) 49.82E-09                   (X_U1.79)-30.15E-09                       

(X_U1.80) 30.63E-09                   (X_U1.81) 5.807E-24                       

(X_U1.82) 1.822E-15                   (X_U1.83) 11.36E-21                       

(X_U1.84) 11.36E-21                   (X_U1.85) 500.0E-12                       

(X_U1.86) 3.433E-15                   (X_U1.87) 33.03E-18                       

(X_U1.88) 20.00E-15                   (X_U1.89) 650.0E-06                       

(X_U1.90)-650.0E-06                   (X_U1.XU7.40) 15.31E-18                   

(X_U1.XIn11.3)    0.0000              (X_U1.XIn11.4)    0.0000                  

(X_U1.XIn11.5)    0.0000              (X_U1.XIn11.6)    0.0000                  

(X_U1.XIn11.7) 10.00E-06              (X_U1.XIn11.8) 10.00E-06                  

(X_U1.XR101.3) 45.45E-12              (X_U1.XR102.3)-454.5E-12                  

(X_U1.XR103.3) 30.03E-18              (X_U1.XR105.3) 275.2E-18                  

(X_U1.XR109.3)    0.0000              (X_U1.XVn11.3)    0.0000                  

(X_U1.XVn11.4)    0.0000              (X_U1.XVn11.5)    0.0000                  

(X_U1.XVn11.6)    0.0000              (X_U1.XVn11.7) 10.00E-06                  

(X_U1.XVn11.8) 10.00E-06              (X_U1.XR101.30)-12.62E-30                 

(X_U1.XR102.30)-500.0E-12             (X_U1.XR103.30) 33.03E-18                 

(X_U1.XR105.30)    0.0000             (X_U1.XR109.30)    0.0000                 

(X_U1.XR105_2.3)    0.0000            (X_U1.XR105_3.3) 2.727E-27                

(X_U1.XR109_2.3)    0.0000            (X_U1.XR109_3.3)    0.0000                

(X_U1.XR109_4.3)    0.0000            (X_U1.XR109_5.3) 956.7E-27                

(X_U1.XR109_6.3)-1.414E-27            (X_U1.XR105_2.30)    0.0000               

(X_U1.XR105_3.30)    0.0000           (X_U1.XR109_2.30)    0.0000               

(X_U1.XR109_3.30)    0.0000           (X_U1.XR109_4.30)    0.0000               

(X_U1.XR109_5.30)    0.0000           (X_U1.XR109_6.30)    0.0000           

Resuming Simulation with the following settings
ITL1 = 524
ITL2 = 1000
RELTOL = 0.0086

Gmin Stepping started by AutoConverge Command
Convergence problem in transient bias point calculation


  Last node voltages tried were:

 NODE   VOLTAGE     NODE   VOLTAGE     NODE   VOLTAGE     NODE   VOLTAGE


(N05092)    -.4232 (N05118)    -.4232 (N05122)-861.5E-15 (N05232) 4.933E-15     

(N05324)-329.9E-12 (N05350)-7.655E-15 (N06023) 50.00E-06 (N065313)-50.00E-06    

(X_U1.11)    0.0000                   (X_U1.12)-7.655E-15                       

(X_U1.13)-76.55E-21                   (X_U1.14)-76.55E-21                       

(X_U1.15)    0.0000                   (X_U1.16) 61.14E-12                       

(X_U1.17)-60.18E-12                   (X_U1.18) 302.7E-18                       

(X_U1.19) 999.5E-09                   (X_U1.20)-999.5E-09                       

(X_U1.21) 11.38E-18                   (X_U1.22) 49.82E-06                       

(X_U1.23)-49.82E-06                   (X_U1.24)-1.297E-09                       

(X_U1.25) 1.297E-09                   (X_U1.26) 604.3E-21                       

(X_U1.27)-1.428E-27                   (X_U1.28) 966.3E-27                       

(X_U1.29)    0.0000                   (X_U1.30) 122.9E-24                       

(X_U1.31) 30.00E-27                   (X_U1.32) 343.3E-12                       

(X_U1.33)-76.55E-21                   (X_U1.34) 15.31E-18                       

(X_U1.35)-76.55E-21                   (X_U1.36) 2.275E-21                       

(X_U1.37)-7.655E-15                   (X_U1.38) 11.38E-18                       

(X_U1.39)-12.62E-30                   (X_U1.40)-500.0E-12                       

(X_U1.41) 500.0E-12                   (X_U1.42)    0.0000                       

(X_U1.43)-99.44E-12                   (X_U1.44) 99.44E-12                       

(X_U1.46)-20.00E-18                   (X_U1.47)-20.00E-18                       

(X_U1.48) 20.00E-15                   (X_U1.49)    0.0000                       

(X_U1.50)    0.0000                   (X_U1.51)-8.555E-27                       

(X_U1.52)-333.3E-12                   (X_U1.53) 333.3E-12                       

(X_U1.54) 333.3E-12                   (X_U1.55)-171.7E-24                       

(X_U1.56)    0.0000                   (X_U1.57)-171.7E-24                       

(X_U1.58)-333.3E-12                   (X_U1.59)-333.3E-12                       

(X_U1.60) 171.7E-21                   (X_U1.61) 171.7E-21                       

(X_U1.62) 3.433E-15                   (X_U1.63)-500.0E-12                       

(X_U1.64) 2.275E-21                   (X_U1.65) 1.000E-06                       

(X_U1.66)-9.850E-12                   (X_U1.67) 1.000E-06                       

(X_U1.68) 9.370E-12                   (X_U1.69)-30.15E-06                       

(X_U1.70) 30.63E-06                   (X_U1.71) 9.850E-06                       

(X_U1.72)-9.370E-06                   (X_U1.73)    -.0010                       

(X_U1.74)     .0010                   (X_U1.75)-650.0E-09                       

(X_U1.76) 650.0E-09                   (X_U1.77)-49.82E-09                       

(X_U1.78) 49.82E-09                   (X_U1.79)-30.15E-09                       

(X_U1.80) 30.63E-09                   (X_U1.81) 5.807E-24                       

(X_U1.82) 1.822E-15                   (X_U1.83) 11.36E-21                       

(X_U1.84) 11.36E-21                   (X_U1.85) 500.0E-12                       

(X_U1.86) 3.433E-15                   (X_U1.87) 33.03E-18                       

(X_U1.88) 20.00E-15                   (X_U1.89) 650.0E-06                       

(X_U1.90)-650.0E-06                   (X_U1.XU7.40) 15.31E-18                   

(X_U1.XIn11.3)    0.0000              (X_U1.XIn11.4)    0.0000                  

(X_U1.XIn11.5)    0.0000              (X_U1.XIn11.6)    0.0000                  

(X_U1.XIn11.7) 10.00E-06              (X_U1.XIn11.8) 10.00E-06                  

(X_U1.XR101.3) 45.45E-12              (X_U1.XR102.3)-454.5E-12                  

(X_U1.XR103.3) 30.03E-18              (X_U1.XR105.3) 275.2E-18                  

(X_U1.XR109.3)    0.0000              (X_U1.XVn11.3)    0.0000                  

(X_U1.XVn11.4)    0.0000              (X_U1.XVn11.5)    0.0000                  

(X_U1.XVn11.6)    0.0000              (X_U1.XVn11.7) 10.00E-06                  

(X_U1.XVn11.8) 10.00E-06              (X_U1.XR101.30)-12.62E-30                 

(X_U1.XR102.30)-500.0E-12             (X_U1.XR103.30) 33.03E-18                 

(X_U1.XR105.30)    0.0000             (X_U1.XR109.30)    0.0000                 

(X_U1.XR105_2.3)    0.0000            (X_U1.XR105_3.3) 2.727E-27                

(X_U1.XR109_2.3)    0.0000            (X_U1.XR109_3.3)    0.0000                

(X_U1.XR109_4.3)    0.0000            (X_U1.XR109_5.3) 956.7E-27                

(X_U1.XR109_6.3)-1.414E-27            (X_U1.XR105_2.30)    0.0000               

(X_U1.XR105_3.30)    0.0000           (X_U1.XR109_2.30)    0.0000               

(X_U1.XR109_3.30)    0.0000           (X_U1.XR109_4.30)    0.0000               

(X_U1.XR109_5.30)    0.0000           (X_U1.XR109_6.30)    0.0000           

Resuming Simulation with the following settings
ITL1 = 981
ABSTOL = 1.58e-008

Gmin Stepping started by AutoConverge Command
Convergence problem in transient bias point calculation


  Last node voltages tried were:

 NODE   VOLTAGE     NODE   VOLTAGE     NODE   VOLTAGE     NODE   VOLTAGE


(N05092)     .5608 (N05118)     .5608 (N05122)-169.0E-12 (N05232)-330.6E-15     

(N05324)-329.9E-12 (N05350)-7.655E-15 (N06023) 50.00E-06 (N065313)-50.00E-06    

(X_U1.11)    0.0000                   (X_U1.12)-7.655E-15                       

(X_U1.13)-76.55E-21                   (X_U1.14)-76.55E-21                       

(X_U1.15)    0.0000                   (X_U1.16) 61.14E-12                       

(X_U1.17)-60.18E-12                   (X_U1.18) 302.7E-18                       

(X_U1.19) 999.5E-09                   (X_U1.20)-999.5E-09                       

(X_U1.21) 11.38E-18                   (X_U1.22) 49.82E-06                       

(X_U1.23)-49.82E-06                   (X_U1.24)-1.297E-09                       

(X_U1.25) 1.297E-09                   (X_U1.26) 604.3E-21                       

(X_U1.27)-1.428E-27                   (X_U1.28) 966.3E-27                       

(X_U1.29)    0.0000                   (X_U1.30) 122.9E-24                       

(X_U1.31) 30.00E-27                   (X_U1.32) 343.3E-12                       

(X_U1.33)-76.55E-21                   (X_U1.34) 15.31E-18                       

(X_U1.35)-76.55E-21                   (X_U1.36) 2.275E-21                       

(X_U1.37)-7.655E-15                   (X_U1.38) 11.38E-18                       

(X_U1.39)-12.62E-30                   (X_U1.40)-500.0E-12                       

(X_U1.41) 500.0E-12                   (X_U1.42)    0.0000                       

(X_U1.43)-99.44E-12                   (X_U1.44) 99.44E-12                       

(X_U1.46)-20.00E-18                   (X_U1.47)-20.00E-18                       

(X_U1.48) 20.00E-15                   (X_U1.49)    0.0000                       

(X_U1.50)    0.0000                   (X_U1.51)-8.555E-27                       

(X_U1.52)-333.3E-12                   (X_U1.53) 333.3E-12                       

(X_U1.54) 333.3E-12                   (X_U1.55)-171.7E-24                       

(X_U1.56)    0.0000                   (X_U1.57)-171.7E-24                       

(X_U1.58)-333.3E-12                   (X_U1.59)-333.3E-12                       

(X_U1.60) 171.7E-21                   (X_U1.61) 171.7E-21                       

(X_U1.62) 3.433E-15                   (X_U1.63)-500.0E-12                       

(X_U1.64) 2.275E-21                   (X_U1.65) 1.000E-06                       

(X_U1.66)-9.850E-12                   (X_U1.67) 1.000E-06                       

(X_U1.68) 9.370E-12                   (X_U1.69)-30.15E-06                       

(X_U1.70) 30.63E-06                   (X_U1.71) 9.850E-06                       

(X_U1.72)-9.370E-06                   (X_U1.73)    -.0010                       

(X_U1.74)     .0010                   (X_U1.75)-650.0E-09                       

(X_U1.76) 650.0E-09                   (X_U1.77)-49.82E-09                       

(X_U1.78) 49.82E-09                   (X_U1.79)-30.15E-09                       

(X_U1.80) 30.63E-09                   (X_U1.81) 5.807E-24                       

(X_U1.82) 1.822E-15                   (X_U1.83) 11.36E-21                       

(X_U1.84) 11.36E-21                   (X_U1.85) 500.0E-12                       

(X_U1.86) 3.433E-15                   (X_U1.87) 33.03E-18                       

(X_U1.88) 20.00E-15                   (X_U1.89) 650.0E-06                       

(X_U1.90)-650.0E-06                   (X_U1.XU7.40) 15.31E-18                   

(X_U1.XIn11.3)    0.0000              (X_U1.XIn11.4)    0.0000                  

(X_U1.XIn11.5)    0.0000              (X_U1.XIn11.6)    0.0000                  

(X_U1.XIn11.7) 10.00E-06              (X_U1.XIn11.8) 10.00E-06                  

(X_U1.XR101.3) 45.45E-12              (X_U1.XR102.3)-454.5E-12                  

(X_U1.XR103.3) 30.03E-18              (X_U1.XR105.3) 275.2E-18                  

(X_U1.XR109.3)    0.0000              (X_U1.XVn11.3)    0.0000                  

(X_U1.XVn11.4)    0.0000              (X_U1.XVn11.5)    0.0000                  

(X_U1.XVn11.6)    0.0000              (X_U1.XVn11.7) 10.00E-06                  

(X_U1.XVn11.8) 10.00E-06              (X_U1.XR101.30)-12.62E-30                 

(X_U1.XR102.30)-500.0E-12             (X_U1.XR103.30) 33.03E-18                 

(X_U1.XR105.30)    0.0000             (X_U1.XR109.30)    0.0000                 

(X_U1.XR105_2.3)    0.0000            (X_U1.XR105_3.3) 2.727E-27                

(X_U1.XR109_2.3)    0.0000            (X_U1.XR109_3.3)    0.0000                

(X_U1.XR109_4.3)    0.0000            (X_U1.XR109_5.3) 956.7E-27                

(X_U1.XR109_6.3)-1.414E-27            (X_U1.XR105_2.30)    0.0000               

(X_U1.XR105_3.30)    0.0000           (X_U1.XR109_2.30)    0.0000               

(X_U1.XR109_3.30)    0.0000           (X_U1.XR109_4.30)    0.0000               

(X_U1.XR109_5.30)    0.0000           (X_U1.XR109_6.30)    0.0000           

Resuming Simulation with the following settings
ITL1 = 1000
RELTOL = 0.05

Gmin Stepping started by AutoConverge Command
Convergence problem in transient bias point calculation


  Last node voltages tried were:

 NODE   VOLTAGE     NODE   VOLTAGE     NODE   VOLTAGE     NODE   VOLTAGE


(N05092)     .2595 (N05118)     .2595 (N05122) 438.0E-12 (N05232) 880.7E-15     

(N05324)-324.8E-12 (N05350)-7.654E-15 (N06023) 50.78E-06 (N065313)-50.78E-06    

(X_U1.11)    0.0000                   (X_U1.12)-7.654E-15                       

(X_U1.13)-77.74E-21                   (X_U1.14)-77.74E-21                       

(X_U1.15)    0.0000                   (X_U1.16) 63.06E-12                       

(X_U1.17)-62.07E-12                   (X_U1.18) 312.3E-18                       

(X_U1.19) 1.015E-06                   (X_U1.20)-1.015E-06                       

(X_U1.21) 11.38E-18                   (X_U1.22) 50.60E-06                       

(X_U1.23)-50.60E-06                   (X_U1.24)-1.338E-09                       

(X_U1.25) 1.338E-09                   (X_U1.26) 623.3E-21                       

(X_U1.27)-1.449E-27                   (X_U1.28) 981.3E-27                       

(X_U1.29)    0.0000                   (X_U1.30)-277.0E-24                       

(X_U1.31) 31.93E-27                   (X_U1.32) 338.4E-12                       

(X_U1.33)-77.74E-21                   (X_U1.34) 15.79E-18                       

(X_U1.35)-77.74E-21                   (X_U1.36) 2.275E-21                       

(X_U1.37)-7.654E-15                   (X_U1.38) 11.38E-18                       

(X_U1.39) 113.6E-30                   (X_U1.40)-515.7E-12                       

(X_U1.41) 515.7E-12                   (X_U1.42)    0.0000                       

(X_U1.43)-102.6E-12                   (X_U1.44) 102.6E-12                       

(X_U1.46)-22.29E-18                   (X_U1.47)-22.29E-18                       

(X_U1.48) 21.28E-15                   (X_U1.49)    0.0000                       

(X_U1.50)    0.0000                   (X_U1.51)-8.726E-27                       

(X_U1.52)-328.2E-12                   (X_U1.53) 328.2E-12                       

(X_U1.54) 328.2E-12                   (X_U1.55)-185.7E-24                       

(X_U1.56)    0.0000                   (X_U1.57)-185.7E-24                       

(X_U1.58)-328.2E-12                   (X_U1.59)-328.2E-12                       

(X_U1.60) 177.2E-21                   (X_U1.61) 177.2E-21                       

(X_U1.62) 3.436E-15                   (X_U1.63)-515.7E-12                       

(X_U1.64) 2.275E-21                   (X_U1.65) 1.016E-06                       

(X_U1.66)-10.00E-12                   (X_U1.67) 1.016E-06                       

(X_U1.68) 9.516E-12                   (X_U1.69)-30.62E-06                       

(X_U1.70) 31.11E-06                   (X_U1.71) 10.00E-06                       

(X_U1.72)-9.516E-06                   (X_U1.73)    -.0010                       

(X_U1.74)     .0010                   (X_U1.75)-670.5E-09                       

(X_U1.76) 670.5E-09                   (X_U1.77)-51.39E-09                       

(X_U1.78) 51.39E-09                   (X_U1.79)-31.10E-09                       

(X_U1.80) 31.59E-09                   (X_U1.81) 5.898E-24                       

(X_U1.82) 1.880E-15                   (X_U1.83) 11.36E-21                       

(X_U1.84) 11.36E-21                   (X_U1.85) 515.7E-12                       

(X_U1.86) 3.436E-15                   (X_U1.87) 33.56E-18                       

(X_U1.88) 21.28E-15                   (X_U1.89) 660.2E-06                       

(X_U1.90)-660.2E-06                   (X_U1.XU7.40) 15.79E-18                   

(X_U1.XIn11.3)    0.0000              (X_U1.XIn11.4)    0.0000                  

(X_U1.XIn11.5)    0.0000              (X_U1.XIn11.6)    0.0000                  

(X_U1.XIn11.7) 10.48E-06              (X_U1.XIn11.8) 10.48E-06                  

(X_U1.XR101.3) 46.23E-12              (X_U1.XR102.3)-469.5E-12                  

(X_U1.XR103.3) 30.55E-18              (X_U1.XR105.3) 283.5E-18                  

(X_U1.XR109.3)    0.0000              (X_U1.XVn11.3)    0.0000                  

(X_U1.XVn11.4)    0.0000              (X_U1.XVn11.5)    0.0000                  

(X_U1.XVn11.6)    0.0000              (X_U1.XVn11.7) 10.48E-06                  

(X_U1.XVn11.8) 10.48E-06              (X_U1.XR101.30) 113.6E-30                 

(X_U1.XR102.30)-515.7E-12             (X_U1.XR103.30) 33.56E-18                 

(X_U1.XR105.30)    0.0000             (X_U1.XR109.30)    0.0000                 

(X_U1.XR105_2.3)    0.0000            (X_U1.XR105_3.3) 2.862E-27                

(X_U1.XR109_2.3)    0.0000            (X_U1.XR109_3.3)    0.0000                

(X_U1.XR109_4.3)    0.0000            (X_U1.XR109_5.3) 971.5E-27                

(X_U1.XR109_6.3)-1.435E-27            (X_U1.XR105_2.30)    0.0000               

(X_U1.XR105_3.30)    0.0000           (X_U1.XR109_2.30)    0.0000               

(X_U1.XR109_3.30)    0.0000           (X_U1.XR109_4.30)    0.0000               

(X_U1.XR109_5.30)    0.0000           (X_U1.XR109_6.30)    0.0000           



          JOB CONCLUDED
 AutoConverge Simulator Options
 ITL1 = 1000
 ITL2 = 1000
 ITL4 = 10
 RELTOL = 0.001
 ABSTOL = 1e-012
 VNTOL = 1e-006
 PIVTOL = 1e-013

**** 02/03/16 08:28:10 ***** PSpice 16.6.0 (October 2012) ***** ID# 0 ********

 ** Profile: "SCHEMATIC2-transiente"  [ C:\Users\msouza\Desktop\rshunt-pspicefiles\schematic2\transiente.sim ] 


 ****     JOB STATISTICS SUMMARY


******************************************************************************



  Total job time (using Solver 1)   =        7.17
