
**** 11/16/15 09:23:25 ***** PSpice 16.6.0 (October 2012) ***** ID# 0 ********

 ** Profile: "SCHEMATIC1-transiente"  [ C:\Users\msouza\Desktop\rshunt-pspicefiles\schematic1\transiente.sim ] 


 ****     CIRCUIT DESCRIPTION


******************************************************************************




** Creating circuit file "transiente.cir" 
** WARNING: THIS AUTOMATICALLY GENERATED FILE MAY BE OVERWRITTEN BY SUBSEQUENT SIMULATIONS

*Libraries: 
* Profile Libraries :
* Local Libraries :
.LIB "../../../rshunt-pspicefiles/rshunt.lib" 
.LIB "C:/Users/msouza/downloads/opa726/opa726_pspice_aio/opa726.lib" 
* From [PSPICE NETLIST] section of C:\Users\lfranca\cdssetup\OrCAD_PSpice/16.6.0/PSpice.ini file:
.lib "nom.lib" 

*Analysis directives: 
.TRAN  0 0.025 0 1u 
.OPTIONS ADVCONV
.AUTOCONVERGE ITL1=1000 ITL2=1000 ITL4=1000 RELTOL=0.05 ABSTOL=1.0E-6 VNTOL=.001 PIVTOL=1.0E-10 
.PROBE64 V(alias(*)) I(alias(*)) W(alias(*)) D(alias(*)) NOISE(alias(*)) 
.INC "..\SCHEMATIC1.net" 



**** INCLUDING SCHEMATIC1.net ****
* source RSHUNT
V_V1         N00236 N00240  AC 0
+SIN 0 51.8 120 0 0 0
R_R1         0 N01211  2m TC=0,0 
D_D1         N00240 N00244 Dbreak 
D_D2         N00236 N00244 Dbreak 
D_D3         0 N00240 Dbreak 
D_D4         0 N00236 Dbreak 
R_R2         N00244 N01211  1 TC=0,0 
V_V2         N021250 0 12
R_R3         0 N02250  10k TC=0,0 
R_R4         N02257 N02250  290k TC=0,0 
R_R5         N02257 0  10000k TC=0,0 
X_U2         N01211 N02250 N021250 0 N02257 N02145 0 OPA726

**** RESUMING transiente.cir ****
.END

**** 11/16/15 09:23:25 ***** PSpice 16.6.0 (October 2012) ***** ID# 0 ********

 ** Profile: "SCHEMATIC1-transiente"  [ C:\Users\msouza\Desktop\rshunt-pspicefiles\schematic1\transiente.sim ] 


 ****     Diode MODEL PARAMETERS


******************************************************************************




               Dbreak          X_U2.DVN        X_U2.DD         X_U2.DIN        
          IS   10.000000E-15  100.000000E-18   10.000000E-15   10.000000E-15 
          RS  100.000000E-09                                                 
         CJO  100.000000E-15                                                 
          KF                   20.000000E-12                                 


**** 11/16/15 09:23:25 ***** PSpice 16.6.0 (October 2012) ***** ID# 0 ********

 ** Profile: "SCHEMATIC1-transiente"  [ C:\Users\msouza\Desktop\rshunt-pspicefiles\schematic1\transiente.sim ] 


 ****     BJT MODEL PARAMETERS


******************************************************************************




               X_U2.QLN        X_U2.QLP        
               NPN             PNP             
       LEVEL    1               1            
          IS  100.000000E-18  100.000000E-18 
          BF  100             100            
          NF    1               1            
          BR    1               1            
          NR    1               1            
         ISS    0               0            
          RE    0               0            
          RC    0               0            
         CJE    0               0            
         VJE     .75             .75         
         CJC    0               0            
         VJC     .75             .75         
         MJC     .33             .33         
        XCJC    1               1            
         CJS    0               0            
         VJS     .75             .75         
          KF    0               0            
          AF    1               1            
          CN    2.42            2.2          
           D     .87             .52         


**** 11/16/15 09:23:25 ***** PSpice 16.6.0 (October 2012) ***** ID# 0 ********

 ** Profile: "SCHEMATIC1-transiente"  [ C:\Users\msouza\Desktop\rshunt-pspicefiles\schematic1\transiente.sim ] 


 ****     Junction FET MODEL PARAMETERS


******************************************************************************




               X_U2.JNC        
               NJF             
         VTO   -2            
        BETA  100.000000E-06 


**** 11/16/15 09:23:25 ***** PSpice 16.6.0 (October 2012) ***** ID# 0 ********

 ** Profile: "SCHEMATIC1-transiente"  [ C:\Users\msouza\Desktop\rshunt-pspicefiles\schematic1\transiente.sim ] 


 ****     MOSFET MODEL PARAMETERS


******************************************************************************




               X_U2.POUT       X_U2.NOUT       X_U2.PIN        X_U2.NIN        
               PMOS            NMOS            PMOS            NMOS            
       LEVEL    1               1               1               1            
           L  100.000000E-06  100.000000E-06  100.000000E-06  100.000000E-06 
           W  100.000000E-06  100.000000E-06  100.000000E-06  100.000000E-06 
         VTO    -.7              .7             -.7              .7          
          KP  200.000000E-06  200.000000E-06  200.000000E-06  200.000000E-06 
       GAMMA    0               0               0               0            
         PHI     .6              .6              .6              .6          
      LAMBDA    0               0               0               0            
          IS   10.000000E-15   10.000000E-15   10.000000E-15   10.000000E-15 
          JS    0               0               0               0            
          PB     .8              .8              .8              .8          
        PBSW     .8              .8              .8              .8          
          CJ    0               0               0               0            
        CJSW    0               0               0               0            
        CGSO    0               0               0               0            
        CGDO    0               0               0               0            
        CGBO    0               0               0               0            
         TOX    0               0               0               0            
          XJ    0               0               0               0            
       UCRIT   10.000000E+03   10.000000E+03   10.000000E+03   10.000000E+03 
      DIOMOD    1               1               1               1            
         VFB    0               0               0               0            
        LETA    0               0               0               0            
        WETA    0               0               0               0            
          U0    0               0               0               0            
        TEMP    0               0               0               0            
         VDD    5               5               5               5            
       XPART    0               0               0               0            


               X_U2.NIQ        X_U2.NET        X_U2.NEN        X_U2.PEN        
               NMOS            NMOS            NMOS            PMOS            
       LEVEL    1               1               1               1            
           L  100.000000E-06  100.000000E-06  100.000000E-06  100.000000E-06 
           W  100.000000E-06  100.000000E-06  100.000000E-06  100.000000E-06 
         VTO     .7             1.2              .5             -.7          
          KP  200.000000E-06  200.000000E-06  200.000000E-06  200.000000E-06 
       GAMMA    0               0               0               0            
         PHI     .6              .6              .6              .6          
      LAMBDA    0               0               0               0            
          IS    1.000000E-18    1.000000E-18    1.000000E-18    1.000000E-18 
          JS    0               0               0               0            
          PB     .8              .8              .8              .8          
        PBSW     .8              .8              .8              .8          
          CJ    0               0               0               0            
        CJSW    0               0               0               0            
        CGSO    0               0               0               0            
        CGDO    0               0               0               0            
        CGBO    0               0               0               0            
         TOX    0               0               0               0            
          XJ    0               0               0               0            
       UCRIT   10.000000E+03   10.000000E+03   10.000000E+03   10.000000E+03 
      DIOMOD    1               1               1               1            
         VFB    0               0               0               0            
        LETA    0               0               0               0            
        WETA    0               0               0               0            
          U0    0               0               0               0            
        TEMP    0               0               0               0            
         VDD    5               5               5               5            
       XPART    0               0               0               0            


               X_U2.PSW        X_U2.NSW        
               PMOS            NMOS            
       LEVEL    1               1            
           L  100.000000E-06  100.000000E-06 
           W  100.000000E-06  100.000000E-06 
         VTO   -7.5             7.5          
          KP  200.000000E-06  200.000000E-06 
       GAMMA    0               0            
         PHI     .6              .6          
      LAMBDA    0               0            
          IS    1.000000E-18    1.000000E-18 
          JS    0               0            
          PB     .8              .8          
        PBSW     .8              .8          
          CJ    0               0            
        CJSW    0               0            
        CGSO    0               0            
        CGDO    0               0            
        CGBO    0               0            
         TOX    0               0            
          XJ    0               0            
       UCRIT   10.000000E+03   10.000000E+03 
      DIOMOD    1               1            
         VFB    0               0            
        LETA    0               0            
        WETA    0               0            
          U0    0               0            
        TEMP    0               0            
         VDD    5               5            
       XPART    0               0            

Convergence problem in transient bias point calculation


  Last node voltages tried were:

 NODE   VOLTAGE     NODE   VOLTAGE     NODE   VOLTAGE     NODE   VOLTAGE


(N00236)    -.1941 (N00240)    -.1941 (N00244)-239.1E-12 (N01211)-477.2E-15     

(N02145) 412.5E-06 (N02250) 3.378E-09 (N02257) 102.0E-09 (X_U2.9) 656.8E-12     

(N021250)     .1650                   (X_U2.10) 1.389E-18                       

(X_U2.11)    0.0000                   (X_U2.12)    -.0052                       

(X_U2.13)    -.0052                   (X_U2.14)    -.0052                       

(X_U2.15) 729.8E-21                   (X_U2.16) 412.5E-06                       

(X_U2.17) 412.5E-06                   (X_U2.18)     .1650                       

(X_U2.19) 97.31E-18                   (X_U2.20) 516.7E-09                       

(X_U2.21) 516.7E-09                   (X_U2.22) 412.5E-06                       

(X_U2.23) 412.5E-06                   (X_U2.24) 2.138E-15                       

(X_U2.25) 102.0E-09                   (X_U2.26)     .4846                       

(X_U2.27)     .4846                   (X_U2.28)     .6037                       

(X_U2.29)     .6037                   (X_U2.30) 3.378E-09                       

(X_U2.31)-397.6E-15                   (X_U2.32) 1.031E-06                       

(X_U2.33)    0.0000                   (X_U2.34) 10.55E-15                       

(X_U2.35) 4.222E-12                   (X_U2.36) 106.1E-12                       

(X_U2.37)    0.0000                   (X_U2.38) 1.083E-18                       

(X_U2.39)-477.2E-15                   (X_U2.40) 8.445E-12                       

(X_U2.41)-993.9E-18                   (X_U2.42)-477.2E-15                       

(X_U2.43) 515.6E-09                   (X_U2.44) 102.0E-09                       

(X_U2.45) 1.608E-09                   (X_U2.46) 102.0E-09                       

(X_U2.47) 412.7E-06                   (X_U2.48) 155.2E-06                       

(X_U2.49)-14.97E-12                   (X_U2.50)-397.6E-15                       

(X_U2.51)-14.97E-12                   (X_U2.52) 3.378E-09                       

(X_U2.53) 257.3E-06                   (X_U2.54) 412.5E-06                       

(X_U2.55) 1.608E-09                   (X_U2.56) 515.6E-09                       

(X_U2.57) 412.6E-06                   (X_U2.58)-397.6E-15                       

(X_U2.59)     .0106                   (X_U2.60)-210.9E-06                       

(X_U2.61) 412.5E-06                   (X_U2.62)    0.0000                       

(X_U2.63) 3.378E-09                   (X_U2.64) 515.6E-09                       

(X_U2.65) 4.030E-06                   (X_U2.66) 519.0E-09                       

(X_U2.67) 643.1E-09                   (X_U2.68) 411.4E-06                       

(X_U2.69) 34.37E-06                   (X_U2.70) 34.37E-06                       

(X_U2.71) 3.095E-06                   (X_U2.72)-2.062E-06                       

(X_U2.73)     .2062                   (X_U2.74)    -.2062                       

(X_U2.75) 344.1E-09                   (X_U2.76) 344.1E-09                       

(X_U2.77) 412.5E-06                   (X_U2.78)    0.0000                       

(X_U2.79)     .0138                   (X_U2.80)     .0138                       

(X_U2.81)     .0138                   (X_U2.82)    -.7077                       

(X_U2.83)     .0138                   (X_U2.84)     .0138                       

(X_U2.85)     .0138                   (X_U2.86)    -.4564                       

(X_U2.87)     .5432                   (X_U2.88)     .5336                       

(X_U2.89)    -.7617                   (X_U2.90)    -.0934                       

(X_U2.91)     .3726                   (X_U2.92)     .0013                       

(X_U2.93)     .5432                   (X_U2.94)     .5336                       

(X_U2.95)     .0138                   (X_U2.96)     .1650                       

(X_U2.97) 171.9E-09                   

Resuming Simulation with the following settings
ITL1 = 280
ITL2 = 171
RELTOL = 0.0086


**** 11/16/15 09:23:25 ***** PSpice 16.6.0 (October 2012) ***** ID# 0 ********

 ** Profile: "SCHEMATIC1-transiente"  [ C:\Users\msouza\Desktop\rshunt-pspicefiles\schematic1\transiente.sim ] 


 ****     INITIAL TRANSIENT SOLUTION       TEMPERATURE =   27.000 DEG C


******************************************************************************



 NODE   VOLTAGE     NODE   VOLTAGE     NODE   VOLTAGE     NODE   VOLTAGE


(N00236)    -.9318 (N00240)   45.2220 (N00244)   44.2910 (N01211)     .0884     

(N02145)   12.0000 (N02250)     .0888 (N02257)    2.6629 (X_U2.9)     .6826     

(N021250)   12.0000                   (X_U2.10)     .0047                       

(X_U2.11)    0.0000                   (X_U2.12)     .9888                       

(X_U2.13)     .9898                   (X_U2.14)     .9888                       

(X_U2.15)     .0047                   (X_U2.16)   11.9960                       

(X_U2.17)   11.9960                   (X_U2.18)   11.9990                       

(X_U2.19)     .0016                   (X_U2.20)    5.9991                       

(X_U2.21)    5.9991                   (X_U2.22)   11.9990                       

(X_U2.23)   12.0000                   (X_U2.24)     .0013                       

(X_U2.25)    2.6629                   (X_U2.26)     .5955                       

(X_U2.27)     .5955                   (X_U2.28)     .7147                       

(X_U2.29)     .7147                   (X_U2.30)     .0888                       

(X_U2.31)     .0888                   (X_U2.32)   12.0000                       

(X_U2.33)    0.0000                   (X_U2.34)     .0888                       

(X_U2.35)     .0888                   (X_U2.36)     .0012                       

(X_U2.37)    0.0000                   (X_U2.38) 8.876E-06                       

(X_U2.39)     .0884                   (X_U2.40)     .0888                       

(X_U2.41)     .0888                   (X_U2.42)     .0884                       

(X_U2.43)    6.0000                   (X_U2.44)    2.6585                       

(X_U2.45)     .8074                   (X_U2.46)    2.6648                       

(X_U2.47)   11.1910                   (X_U2.48)   11.2020                       

(X_U2.49)     .4000                   (X_U2.50)     .0888                       

(X_U2.51)     .4000                   (X_U2.52)     .0888                       

(X_U2.53)     .7984                   (X_U2.54)   11.1910                       

(X_U2.55)     .8074                   (X_U2.56)    6.0000                       

(X_U2.57)   11.3160                   (X_U2.58)     .0888                       

(X_U2.59)    2.1398                   (X_U2.60)   11.0810                       

(X_U2.61)   12.0000                   (X_U2.62)    0.0000                       

(X_U2.63)     .0888                   (X_U2.64)    6.0000                       

(X_U2.65)   10.6700                   (X_U2.66)    1.3179                       

(X_U2.67)     .8074                   (X_U2.68)   11.1910                       

(X_U2.69)    1.0000                   (X_U2.70)    1.0000                       

(X_U2.71)   35.9990                   (X_U2.72)  -24.0000                       

(X_U2.73)   -8.9999                   (X_U2.74)   20.9990                       

(X_U2.75)    5.6193                   (X_U2.76)    3.9997                       

(X_U2.77)     .0056                   (X_U2.78)    0.0000                       

(X_U2.79)    1.0000                   (X_U2.80)     .0100                       

(X_U2.81)    1.0000                   (X_U2.82)   11.2290                       

(X_U2.83)    1.0000                   (X_U2.84)    1.0000                       

(X_U2.85)    1.0000                   (X_U2.86)     .0830                       

(X_U2.87)     .6551                   (X_U2.88)    -.0449                       

(X_U2.89)   25.6380                   (X_U2.90)   26.4830                       

(X_U2.91)   26.9550                   (X_U2.92)    -.0449                       

(X_U2.93)     .6551                   (X_U2.94)    -.0449                       

(X_U2.95)    1.0000                   (X_U2.96)     .0035                       

(X_U2.97)    2.0000                   




    VOLTAGE SOURCE CURRENTS
    NAME         CURRENT

    V_V1         4.420E+01
    V_V2        -4.326E-03
    X_U2.V18    -5.421E-20
    X_U2.V21     4.000E-04
    X_U2.V49     0.000E+00
    X_U2.V50    -3.711E-22
    X_U2.V51    -9.900E-05
    X_U2.V52     1.000E-12
    X_U2.V78     4.769E-11
    X_U2.V79     3.938E-13
    X_U2.V80     1.000E-12
    X_U2.V111   -4.490E-08
    X_U2.V112   -8.455E-07
    X_U2.V113    8.301E-14
    X_U2.V114   -4.490E-08

    TOTAL POWER DISSIPATION   2.04E+03  WATTS


          JOB ABORTED

**** 11/16/15 09:23:25 ***** PSpice 16.6.0 (October 2012) ***** ID# 0 ********

 ** Profile: "SCHEMATIC1-transiente"  [ C:\Users\msouza\Desktop\rshunt-pspicefiles\schematic1\transiente.sim ] 


 ****     JOB STATISTICS SUMMARY


******************************************************************************



  Total job time (using Solver 1)   =        5.31
